52
Lattice="7.752142803384964 0.0 0.0 0.0 7.752142803384963 0.0 0.0 0.0 11.566824020000002" Properties=species:S:1:pos:R:3 pbc="T T T"
O        0.00840015       5.86757930       5.78341202
O        0.00000000       5.83461145       1.92780401
La       5.80771144       5.80771145       3.83090899
La       5.80771145       5.80771144       7.73591504
La       1.94443135       1.94443135       7.68651699
La       1.94443135       1.94443135       3.88030704
La       1.94282360       5.80931920       3.85560801
La       1.94282360       5.80931920       7.71121602
Ni       3.87044646       3.87044647       1.92780401
Ni       0.01841624       0.01841624       1.92780401
Ni       0.00716636       0.00716637       5.78341202
Ni       3.88169634       3.88169633       5.78341202
Ni       0.01118355       3.87767915       5.78341202
Ni       0.01118356       3.87767915       1.92780401
O        3.87724706       5.75105909       1.92780401
O        5.75105909       3.87724706       1.92780401
O        0.01396696       1.88777900       5.78341202
O        3.87489574       2.00108371       5.78341202
O        2.00108371       3.87489574       5.78341202
O        1.88777900       0.01396696       5.78341202
O        1.96811586       3.86649560       1.92780401
O        1.92074685       0.02236711       1.92780401
O        0.02236711       1.92074685       1.92780401
O        3.86649560       1.96811586       1.92780401
O        5.78402694       3.88564721       5.78341202
O        3.88564721       5.78402694       5.78341202
O        0.01118356       3.87767915       3.78454145
O        0.01118355       3.87767915       7.78228258
O        3.87607140       3.87607141       3.85560801
O        0.01279131       0.01279130       7.71121602
O        0.01279131       0.01279130       3.85560801
O        3.87607140       3.87607141       7.71121602
La       5.80931920       1.94282360       3.85560801
La       5.80931920       1.94282360       7.71121602
Ni       3.87767915       0.01118355       5.78341202
Ni       3.87767915       0.01118356       1.92780401
O        5.86757930       0.00840015       5.78341202
O        5.83461145       0.00000000       1.92780401
O        3.87767915       0.01118356       3.78454145
O        3.87767915       0.01118355       7.78228258
O        0.00000000       5.83461145       9.63902002
Ni       3.87044646       3.87044647       9.63902002
Ni       0.01841624       0.01841624       9.63902002
Ni       0.01118356       3.87767915       9.63902002
O        3.87724706       5.75105909       9.63902002
O        5.75105909       3.87724706       9.63902002
O        1.96811586       3.86649560       9.63902002
O        1.92074685       0.02236711       9.63902002
O        0.02236711       1.92074685       9.63902002
O        3.86649560       1.96811586       9.63902002
Ni       3.87767915       0.01118356       9.63902002
O        5.83461145       0.00000000       9.63902002
