204
Lattice="23.13364803 0.0 0.0 0.0 21.85401242 0.0 0.0 0.0 16.40415153" Properties=species:S:1:pos:R:3 pbc="T T T"
Ni       0.00000000       8.18729980       8.20207577
Ni       3.85560801       8.20320952       8.20207576
O        0.00000000       9.52190248       9.52706096
O        0.00000000       9.52190248       6.87709057
O        3.85560801       9.55115408       6.85971858
O        3.85560801       9.55115408       9.54443295
O        5.78341201       8.19525466       8.20207577
O        1.92780400       8.19525466       8.20207577
Ni       0.00000000      13.66671262       2.73402525
Ni       3.85560801      13.65080290       2.73402526
O        0.00000000      12.33210994       4.05901045
O        3.85560801      14.98540559       4.05901045
O        0.00000000      15.01465718       4.07638244
O        3.85560801      12.30285834       4.07638244
O        1.92780400      13.65875776       2.73402525
O        5.78341201      13.65875776       2.73402525
La       1.90310498      10.92700621       8.20207576
La       5.80811103      10.92700621       8.20207577
La       5.75871298      16.39050932       8.20207576
La       1.95250303      16.39050932       8.20207577
La       1.92780400      13.65875776       5.46805051
La       5.78341201      13.65875776       5.46805051
Ni       0.00000000      13.66671262       8.20207576
Ni       0.00000000      19.11430601       8.20207577
Ni       3.85560801      19.13021573       8.20207576
Ni       3.85560801      13.65080290       8.20207577
Ni       0.00000000      10.92700621       5.46805051
Ni       3.85560801      16.39050932       5.46805051
Ni       0.00000000      16.39050931       5.46805051
Ni       3.85560801      10.92700621       5.46805051
O        0.00000000      12.33210994       6.87709057
O        0.00000000      12.33210994       9.52706096
O        3.85560801      17.79561304       6.87709057
O        3.85560801      14.98540559       9.52706096
O        3.85560801      14.98540559       6.87709057
O        3.85560801      17.79561304       9.52706096
O        0.00000000      15.01465718       6.85971858
O        0.00000000      17.76636145       9.54443295
O        0.00000000      17.76636145       6.85971858
O        0.00000000      15.01465718       9.54443295
O        3.85560801      12.30285834       9.54443295
O        3.85560801      12.30285834       6.85971858
O        1.85673744      16.39050931       5.46805051
O        5.85447857      16.39050932       5.46805051
O        5.71234544      10.92700621       5.46805051
O        1.99887057      10.92700621       5.46805051
O        1.92780400      13.65875776       8.20207576
O        5.78341201      19.12226087       8.20207577
O        1.92780400      19.12226087       8.20207577
O        5.78341201      13.65875776       8.20207576
La       1.92780400      13.65875776      10.93610102
La       5.78341201      13.65875776      10.93610102
Ni       0.00000000      13.66671262      13.67012627
Ni       3.85560801      13.65080290      13.67012628
Ni       0.00000000      10.92700621      10.93610102
Ni       3.85560801      16.39050932      10.93610102
Ni       0.00000000      16.39050931      10.93610102
Ni       3.85560801      10.92700621      10.93610102
O        0.00000000      12.33210994      12.34514108
O        3.85560801      14.98540559      12.34514108
O        0.00000000      15.01465718      12.32776909
O        3.85560801      12.30285834      12.32776909
O        1.85673744      16.39050931      10.93610102
O        5.85447857      16.39050932      10.93610102
O        5.71234544      10.92700621      10.93610102
O        1.99887057      10.92700621      10.93610102
O        1.92780400      13.65875776      13.67012627
O        5.78341201      13.65875776      13.67012627
Ni       7.71121601       8.18729980       8.20207577
Ni      11.56682402       8.20320952       8.20207576
O        7.71121601       9.52190248       9.52706096
O        7.71121601       9.52190248       6.87709057
O       11.56682402       9.55115408       6.85971858
O       11.56682402       9.55115408       9.54443295
O       13.49462802       8.19525466       8.20207577
O        9.63902001       8.19525466       8.20207577
Ni       7.71121601      13.66671262       2.73402525
Ni      11.56682402      13.65080290       2.73402526
O        7.71121601      12.33210994       4.05901045
O       11.56682402      14.98540559       4.05901045
O        7.71121601      15.01465718       4.07638244
O       11.56682402      12.30285834       4.07638244
O        9.63902001      13.65875776       2.73402525
O       13.49462802      13.65875776       2.73402525
La       9.61432099      10.92700621       8.20207576
La      13.51932704      10.92700621       8.20207577
La      13.46992899      16.39050932       8.20207576
La       9.66371904      16.39050932       8.20207577
La       9.63902001      13.65875776       5.46805051
La      13.49462802      13.65875776       5.46805051
Ni       7.71121601      13.66671262       8.20207576
Ni       7.71121601      19.11430601       8.20207577
Ni      11.56682402      19.13021573       8.20207576
Ni      11.56682402      13.65080290       8.20207577
Ni       7.71121601      10.92700621       5.46805051
Ni      11.56682402      16.39050932       5.46805051
Ni       7.71121601      16.39050931       5.46805051
Ni      11.56682402      10.92700621       5.46805051
O        7.71121601      12.33210994       6.87709057
O        7.71121601      12.33210994       9.52706096
O       11.56682402      17.79561304       6.87709057
O       11.56682402      14.98540559       9.52706096
O       11.56682402      14.98540559       6.87709057
O       11.56682402      17.79561304       9.52706096
O        7.71121601      15.01465718       6.85971858
O        7.71121601      17.76636145       9.54443295
O        7.71121601      17.76636145       6.85971858
O        7.71121601      15.01465718       9.54443295
O       11.56682402      12.30285834       9.54443295
O       11.56682402      12.30285834       6.85971858
O        9.56795345      16.39050931       5.46805051
O       13.56569458      16.39050932       5.46805051
O       13.42356145      10.92700621       5.46805051
O        9.71008658      10.92700621       5.46805051
O        9.63902001      13.65875776       8.20207576
O       13.49462802      19.12226087       8.20207577
O        9.63902001      19.12226087       8.20207577
O       13.49462802      13.65875776       8.20207576
La       9.63902001      13.65875776      10.93610102
La      13.49462802      13.65875776      10.93610102
Ni       7.71121601      13.66671262      13.67012627
Ni      11.56682402      13.65080290      13.67012628
Ni       7.71121601      10.92700621      10.93610102
Ni      11.56682402      16.39050932      10.93610102
Ni       7.71121601      16.39050931      10.93610102
Ni      11.56682402      10.92700621      10.93610102
O        7.71121601      12.33210994      12.34514108
O       11.56682402      14.98540559      12.34514108
O        7.71121601      15.01465718      12.32776909
O       11.56682402      12.30285834      12.32776909
O        9.56795345      16.39050931      10.93610102
O       13.56569458      16.39050932      10.93610102
O       13.42356145      10.92700621      10.93610102
O        9.71008658      10.92700621      10.93610102
O        9.63902001      13.65875776      13.67012627
O       13.49462802      13.65875776      13.67012627
Ni      15.42243202       8.18729980       8.20207577
Ni      19.27804003       8.20320952       8.20207576
O       15.42243202       9.52190248       9.52706096
O       15.42243202       9.52190248       6.87709057
O       19.27804003       9.55115408       6.85971858
O       19.27804003       9.55115408       9.54443295
O       21.20584403       8.19525466       8.20207577
O       17.35023602       8.19525466       8.20207577
Ni      15.42243202      13.66671262       2.73402525
Ni      19.27804003      13.65080290       2.73402526
O       15.42243202      12.33210994       4.05901045
O       19.27804003      14.98540559       4.05901045
O       15.42243202      15.01465718       4.07638244
O       19.27804003      12.30285834       4.07638244
O       17.35023602      13.65875776       2.73402525
O       21.20584403      13.65875776       2.73402525
La      17.32553700      10.92700621       8.20207576
La      21.23054305      10.92700621       8.20207577
La      21.18114500      16.39050932       8.20207576
La      17.37493505      16.39050932       8.20207577
La      17.35023602      13.65875776       5.46805051
La      21.20584403      13.65875776       5.46805051
Ni      15.42243202      13.66671262       8.20207576
Ni      15.42243202      19.11430601       8.20207577
Ni      19.27804003      19.13021573       8.20207576
Ni      19.27804003      13.65080290       8.20207577
Ni      15.42243202      10.92700621       5.46805051
Ni      19.27804003      16.39050932       5.46805051
Ni      15.42243202      16.39050931       5.46805051
Ni      19.27804003      10.92700621       5.46805051
O       15.42243202      12.33210994       6.87709057
O       15.42243202      12.33210994       9.52706096
O       19.27804003      17.79561304       6.87709057
O       19.27804003      14.98540559       9.52706096
O       19.27804003      14.98540559       6.87709057
O       19.27804003      17.79561304       9.52706096
O       15.42243202      15.01465718       6.85971858
O       15.42243202      17.76636145       9.54443295
O       15.42243202      17.76636145       6.85971858
O       15.42243202      15.01465718       9.54443295
O       19.27804003      12.30285834       9.54443295
O       19.27804003      12.30285834       6.85971858
O       17.27916946      16.39050931       5.46805051
O       21.27691059      16.39050932       5.46805051
O       21.13477746      10.92700621       5.46805051
O       17.42130259      10.92700621       5.46805051
O       17.35023602      13.65875776       8.20207576
O       21.20584403      19.12226087       8.20207577
O       17.35023602      19.12226087       8.20207577
O       21.20584403      13.65875776       8.20207576
La      17.35023602      13.65875776      10.93610102
La      21.20584403      13.65875776      10.93610102
Ni      15.42243202      13.66671262      13.67012627
Ni      19.27804003      13.65080290      13.67012628
Ni      15.42243202      10.92700621      10.93610102
Ni      19.27804003      16.39050932      10.93610102
Ni      15.42243202      16.39050931      10.93610102
Ni      19.27804003      10.92700621      10.93610102
O       15.42243202      12.33210994      12.34514108
O       19.27804003      14.98540559      12.34514108
O       15.42243202      15.01465718      12.32776909
O       19.27804003      12.30285834      12.32776909
O       17.27916946      16.39050931      10.93610102
O       21.27691059      16.39050932      10.93610102
O       21.13477746      10.92700621      10.93610102
O       17.42130259      10.92700621      10.93610102
O       17.35023602      13.65875776      13.67012627
O       21.20584403      13.65875776      13.67012627
