40
Lattice="7.71121601 0.0 0.0 0.0 10.92700621 0.0 0.0 0.0 5.46805051" Properties=species:S:1:pos:R:3:spacegroup_kinds:I:1 spacegroup="C m m m" unit_cell=conventional occupancy="_JSON {\"0\": {\"La\": 1}, \"1\": {\"La\": 1}, \"2\": {\"Ni\": 1}, \"3\": {\"Ni\": 1}, \"4\": {\"Ni\": 1}, \"5\": {\"O\": 1}, \"6\": {\"O\": 1}, \"7\": {\"O\": 1}, \"8\": {\"O\": 1}}" pbc="T T T"
La       1.90310498       0.00000000       2.73402525        0
La       5.80811103       0.00000000       2.73402526        0
La       5.75871298       5.46350311       2.73402525        0
La       1.95250303       5.46350311       2.73402526        0
La       1.92780400       2.73175155       0.00000000        1
La       5.78341201       8.19525466       0.00000000        1
La       1.92780400       8.19525466       0.00000000        1
La       5.78341201       2.73175155       0.00000000        1
Ni       0.00000000       2.73970641       2.73402525        2
Ni       0.00000000       8.18729980       2.73402526        2
Ni       3.85560801       8.20320952       2.73402525        2
Ni       3.85560801       2.72379669       2.73402526        2
Ni       0.00000000       0.00000000       0.00000000        3
Ni       3.85560801       5.46350311       0.00000000        3
Ni       0.00000000       5.46350310       0.00000000        4
Ni       3.85560801       0.00000000       0.00000000        4
O        0.00000000       1.40510373       1.40904006        5
O        0.00000000       9.52190248       4.05901045        5
O        0.00000000       9.52190248       1.40904006        5
O        0.00000000       1.40510373       4.05901045        5
O        3.85560801       6.86860683       1.40904006        5
O        3.85560801       4.05839938       4.05901045        5
O        3.85560801       4.05839938       1.40904006        5
O        3.85560801       6.86860683       4.05901045        5
O        0.00000000       4.08765097       1.39166807        6
O        0.00000000       6.83935524       4.07638244        6
O        0.00000000       6.83935524       1.39166807        6
O        0.00000000       4.08765097       4.07638244        6
O        3.85560801       9.55115408       1.39166807        6
O        3.85560801       1.37585213       4.07638244        6
O        3.85560801       1.37585213       1.39166807        6
O        3.85560801       9.55115408       4.07638244        6
O        1.85673744       5.46350310       0.00000000        7
O        5.85447857       5.46350311       0.00000000        7
O        5.71234544       0.00000000       0.00000000        7
O        1.99887057       0.00000000       0.00000000        7
O        1.92780400       2.73175155       2.73402525        8
O        5.78341201       8.19525466       2.73402526        8
O        1.92780400       8.19525466       2.73402526        8
O        5.78341201       2.73175155       2.73402525        8
